Version 4
SHEET 1 1468 680
WIRE 256 -400 -64 -400
WIRE 576 -400 256 -400
WIRE 768 -400 576 -400
WIRE 256 -368 256 -400
WIRE -64 -272 -64 -400
WIRE 256 -240 256 -288
WIRE 576 -160 576 -400
WIRE 1248 -144 224 -144
WIRE -64 -96 -64 -192
WIRE 1008 -96 -64 -96
WIRE 576 -16 576 -80
WIRE 576 -16 320 -16
WIRE 768 -16 768 -400
WIRE 1104 -16 768 -16
WIRE 1008 48 1008 -96
WIRE -64 64 -64 -96
WIRE 224 64 224 -144
WIRE 224 64 -64 64
WIRE 320 96 320 -16
WIRE 1248 112 1248 -144
WIRE -64 128 -64 64
WIRE 608 128 576 128
WIRE 704 128 688 128
WIRE 832 128 704 128
WIRE 576 160 576 128
WIRE 768 160 768 -16
WIRE 224 176 224 64
WIRE 272 176 224 176
WIRE 704 176 704 128
WIRE 736 176 704 176
WIRE 1104 176 1104 -16
WIRE 912 192 912 128
WIRE 912 192 800 192
WIRE 1072 192 912 192
WIRE 320 208 320 192
WIRE 736 208 320 208
WIRE 1248 208 1248 176
WIRE 1248 208 1136 208
WIRE 1008 224 1008 128
WIRE 1008 224 928 224
WIRE 1072 224 1008 224
WIRE 320 240 320 208
WIRE 1248 256 1248 208
WIRE 1008 272 1008 224
WIRE -64 320 -64 192
WIRE 320 320 -64 320
WIRE 1008 368 1008 352
WIRE 1104 368 1104 240
WIRE 1104 368 1008 368
WIRE 768 384 768 224
WIRE 1104 384 1104 368
WIRE 320 400 320 320
WIRE 928 416 928 224
WIRE 1248 416 1248 336
WIRE 1248 416 928 416
FLAG 320 400 0
FLAG 256 -240 0
FLAG 768 384 0
FLAG 576 160 0
FLAG 1104 384 0
SYMBOL zener -48 192 R180
WINDOW 0 24 64 Left 2
WINDOW 3 115 53 Left 2
SYMATTR InstName D1
SYMATTR Value BZX84C15L
SYMBOL nmos 272 96 R0
SYMATTR InstName M1
SYMATTR Value Si4416DY
SYMBOL res -80 -288 R0
SYMATTR InstName R1
SYMATTR Value 10k
SYMBOL res 560 -176 R0
SYMATTR InstName R3
SYMATTR Value 8
SYMBOL voltage 256 -384 R0
WINDOW 123 0 0 Left 2
WINDOW 39 0 0 Left 2
SYMATTR InstName V1
SYMATTR Value PWL(0 24 1000m 0)
SYMBOL res 304 224 R0
SYMATTR InstName R2
SYMATTR Value 0.1
SYMBOL Opamps\\opamp2 768 128 R0
SYMATTR InstName U3
SYMATTR Value LM324
SYMBOL res 704 112 R90
WINDOW 0 0 56 VBottom 2
WINDOW 3 32 56 VTop 2
SYMATTR InstName R5
SYMATTR Value 6k2
SYMBOL res 928 112 R90
WINDOW 0 0 56 VBottom 2
WINDOW 3 32 56 VTop 2
SYMATTR InstName R6
SYMATTR Value 180k
SYMBOL Opamps\\opamp2 1104 144 R0
SYMATTR InstName U2
SYMATTR Value LM324
SYMBOL res 992 32 R0
SYMATTR InstName R4
SYMATTR Value 150k
SYMBOL res 992 256 R0
SYMATTR InstName R7
SYMATTR Value 100k
SYMBOL diode 1232 112 R0
SYMATTR InstName D2
SYMATTR Value 1N4148
SYMBOL res 1232 240 R0
SYMATTR InstName R8
SYMATTR Value 100k
TEXT -176 424 Left 2 !.tran 1000m
TEXT -176 456 Left 2 !.include LMx93.txt
TEXT -400 456 Left 2 !.include LM324.txt
